*Heading
** Job name: ciloindro Model name: Model-1
** Generated by: Abaqus/CAE 2016
*Preprint, echo=NO, model=NO, history=NO, contact=NO
**
** PARTS
**
*Part, name=Part-2
*Node
*Node
      1, -0.000298778992, 0.00146994251,           0.
      2, -0.000676515163, 0.0013387783,           0.
      3, -0.000929624832, 0.00117719907,           0.
      4, -0.00120760512, 0.000889769639,           0.
      5, -0.00136063632, 0.00063140213,           0.
      6, -0.00147910533, 0.000249494042,           0.
      7, -0.00149916229,  -5.0122464e-05,           0.
      8, -0.00143265375, -0.000444413366,           0.
      9, -0.00131542492, -0.00072087266,           0.
     10, -0.00107823557, -0.00104278862,           0.
     11, -0.000848920667, -0.00123666239,           0.
     12, -0.000492037274, -0.00141700369,           0.
     13, -0.000199930437, -0.00148661621,           0.
     14, 0.000199930437, -0.00148661621,           0.
     15, 0.000492037274, -0.00141700369,           0.
     16, 0.000848920667, -0.00123666239,           0.
     17, 0.00107823557, -0.00104278862,           0.
     18, 0.00131542492, -0.00072087266,           0.
     19, 0.00143265375, -0.000444413366,           0.
     20, 0.00149916229,  -5.0122464e-05,           0.
** ... 30515 like lines cut
*Element, type=C3D8T
      1,  1079,  1128,  1191,  1012,    94,   143,   206,    27
    2,  1166,  1016,  1015,  1180,   181,    31,    30,   195
    3,  1126,  1077,  1076,  1153,   141,    92,    91,   168
    4,  1080,  1010,  1074,  1125,    95,    25,    89,   140
    5,  1122,  1071,  1070,  1121,   137,    86,    85,   136
    6,  1007,  1161,  1119,  1068,    22,   176,   134,    83
    7,  1159,  1066,  1065,  1176,   174,    81,    80,   191
    8,  1379,  1275,  1365,  1389,   394,   290,   380,   404
    9,  1004,  1151,  1114,  1060,    19,   166,   129,    75
   10,  1057,  1111,  1157,  1003,    72,   126,   172,    18
   11,  1170,  1055,  1002,  1178,   185,    70,    17,   193
   12,  1001,  1082,  1833,  1053,    16,    97,   848,    68
   13,  1000,  1160,  1108,  1050,    15,   175,   123,    65
   14,  1106,   999,  1047,  1105,   121,    14,    62,   120
   15,  1154,  1043,   997,  1171,   169,    58,    12,   186
   16,  1040,  1174,  1173,  1041,    55,   189,   188,    56
   17,  1134,  1194,  1305,  1235,   149,   209,   320,   250
   18,   994,  1162,  1097,  1035,     9,   177,   112,    50
   19,  1032,  1094,  1164,   993,    47,   109,   179,     8
   20,  1167,  1031,  1030,  1186,   182,    46,    45,   201
** ... 28090 like lines cut
*Nset, nset=ALL, generate
    1,   30535,     1
*Elset, elset=MATRIX, generate
    1,  28110,     1
** Section: Section-1
*Solid Section, elset=MATRIX, material=PORO
,
*End Part
**  
**
** ASSEMBLY
**
*Assembly, name=Assembly
**  
*Instance, name=Part-2-1, part=Part-2
*End Instance
**  
*Nset, nset=bottom, instance=Part-2-1, generate
   1,  985,    1
*Nset, nset=ALL, instance=Part-2-1, generate
   1,  30535,    1
*Elset, elset=Set-1, instance=Part-2-1, generate
   1,  278,    1
*Nset, nset=Set-2, instance=Part-2-1, generate
   1,  304,    1
*Elset, elset=Set-2, instance=Part-2-1, generate
   1,  278,    1
*Nset, nset=Set-3, instance=Part-2-1, generate
    1,  5168,     1
*Elset, elset=Set-3, instance=Part-2-1, generate
    1,  4448,     1
*Nset, nset=appliedload, instance=Part-2-1, generate
 4865,  5168,     1
*Elset, elset=appliedload, instance=Part-2-1, generate
 4171,  4448,     1
*Nset, nset=ENDLEFT, instance=Part-2-1, generate
  1,  985,    1
*Nset, nset=Set-10, instance=PART-2-1
     1,     2,     3,     4,     5,     6,     7,     8,     9,    10,    11,    12,    13,    14,    15,    16
    17,    18,    19,    20,    21,    22,    23,    24,    25,    26,    27,    28,    29,    30,    31,    32
    33,    34,    35,    36,    37,    38,    39,    40,    41,    42,    43,    44,    45,    46,    47,    48
    49,    50,    51,    52,    53,    54,    55,    56,    57,    58,    59,    60,    61,    62,    63,    64
    65,    66,    67,    68,    69,    70,    71,    72,    73,    74,    75,    76,    77,    78,    79,    80
    81,    82,    83,    84,    85,    86,    87,    88,    89,    90,    91,    92,    93,    94,   986,   987
   988,   989,   990,   991,   992,   993,   994,   995,   996,   997,   998,   999,  1000,  1001,  1002,  1003
  1004,  1005,  1006,  1007,  1008,  1009,  1010,  1011,  1012,  1013,  1014,  1015,  1016,  1017,  1018,  1019
  1020,  1021,  1022,  1023,  1024,  1025,  1026,  1027,  1028,  1029,  1030,  1031,  1032,  1033,  1034,  1035
  1036,  1037,  1038,  1039,  1040,  1041,  1042,  1043,  1044,  1045,  1046,  1047,  1048,  1049,  1050,  1051
  1052,  1053,  1054,  1055,  1056,  1057,  1058,  1059,  1060,  1061,  1062,  1063,  1064,  1065,  1066,  1067
  1068,  1069,  1070,  1071,  1072,  1073,  1074,  1075,  1076,  1077,  1078,  1079,  1971,  1972,  1973,  1974
  1975,  1976,  1977,  1978,  1979,  1980,  1981,  1982,  1983,  1984,  1985,  1986,  1987,  1988,  1989,  1990
  1991,  1992,  1993,  1994,  1995,  1996,  1997,  1998,  1999,  2000,  2001,  2002,  2003,  2004,  2005,  2006
  2007,  2008,  2009,  2010,  2011,  2012,  2013,  2014,  2015,  2016,  2017,  2018,  2019,  2020,  2021,  2022
  2023,  2024,  2025,  2026,  2027,  2028,  2029,  2030,  2031,  2032,  2033,  2034,  2035,  2036,  2037,  2038
  2039,  2040,  2041,  2042,  2043,  2044,  2045,  2046,  2047,  2048,  2049,  2050,  2051,  2052,  2053,  2054
  2055,  2056,  2057,  2058,  2059,  2060,  2061,  2062,  2063,  2064,  2956,  2957,  2958,  2959,  2960,  2961
  2962,  2963,  2964,  2965,  2966,  2967,  2968,  2969,  2970,  2971,  2972,  2973,  2974,  2975,  2976,  2977
  2978,  2979,  2980,  2981,  2982,  2983,  2984,  2985,  2986,  2987,  2988,  2989,  2990,  2991,  2992,  2993
** ... 163 like lines cut
*Elset, elset=base, instance=Part-2-1, generate
      1,  937,    1
*Elset, elset=_Surf-1_S1, internal, instance=Part-2-1, generate
 27174,  28110,      1
*Surface, type=ELEMENT, name=Surf-1
_Surf-1_S1, S1
*End Assembly
** 
** MATERIALS
** 
*Material, name=PORO
*Density
1.,
*Depvar
      4,
*Elastic
 0.2e+6, 0.3
*Expansion
1.3541e-6
*User output variables
2
*User Material, constants=4, type=THERMAL
 **1.3e+10,  0.88, 1e-07,  0.65,   1.2
**beta,k/mi,KB/alfa, B
0, 8.33e-8,2.16e5, 0.88
** PHYSICAL CONSTANTS
** 
*Physical Constants, absolute zero=0
** 
** PREDEFINED FIELDS
** 
** Name: Field-1   Type: Temperature
*Initial Conditions, type=TEMPERATURE
ALL, 0
** Name: BC-3 Type: Displacement/Rotation
*Boundary
Set-10, 1, 1
Set-10, 2, 2
*Boundary
ENDLEFT, ENCASTRE
** Name: BC-2 Type: Temperature
*Boundary
ENDLEFT, 11, 11
** ----------------------------------------------------------------
** 
** STEP: Step-1
** 
*Step, name=Step-1, nlgeom=NO, inc=100 
*Coupled Temperature-displacement, creep=none
**, deltmx=50000.
1.2e-05, 4.8e-4
**, 0.00048, 4.8e-09, 0.00048
*Controls, reset	
*Controls, parameters=time incrementation
 10000,10000,8000,12000,500, 5, , , , 
 , , , , , , , ,
** 
** BOUNDARY CONDITIONS
** 
** Name: BC-1 Type: Symmetry/Antisymmetry/Encastre
** 
** LOADS
** 
** Name: Load-1   Type: Pressure
*Dsload
Surf-1, P, 0.07e+06
** 
** OUTPUT REQUESTS
** 
*Restart, write, frequency=0 
*Output, field, frequency=1 
*Node Output 
CF, RF, U, NT
*Element output
uvarm, S, E
*End Step
